Input Parameters:
   integrator                     = md
   tinit                          = 0
   dt                             = 0.002
   nsteps                         = 500000
   init-step                      = 0
   simulation-part                = 1
   comm-mode                      = Linear
   nstcomm                        = 100
   bd-fric                        = 0
   ld-seed                        = 1433703689
   emtol                          = 10
   emstep                         = 0.01
   niter                          = 20
   fcstep                         = 0
   nstcgsteep                     = 1000
   nbfgscorr                      = 10
   rtpi                           = 0.05
   nstxout                        = 500
   nstvout                        = 500
   nstfout                        = 0
   nstlog                         = 500
   nstcalcenergy                  = 100
   nstenergy                      = 500
   nstxout-compressed             = 0
   compressed-x-precision         = 1000
   cutoff-scheme                  = Verlet
   nstlist                        = 40
   ns-type                        = Grid
   pbc                            = xyz
   periodic-molecules             = false
   verlet-buffer-tolerance        = 0.005
   rlist                          = 1.28
   coulombtype                    = PME
   coulomb-modifier               = Potential-shift
   rcoulomb-switch                = 0
   rcoulomb                       = 1.2
   epsilon-r                      = 1
   epsilon-rf                     = inf
   vdw-type                       = Cut-off
   vdw-modifier                   = Force-switch
   rvdw-switch                    = 1
   rvdw                           = 1.2
   DispCorr                       = No
   table-extension                = 1
   fourierspacing                 = 0.12
   fourier-nx                     = 56
   fourier-ny                     = 56
   fourier-nz                     = 56
   pme-order                      = 4
   ewald-rtol                     = 1e-05
   ewald-rtol-lj                  = 0.001
   lj-pme-comb-rule               = Geometric
   ewald-geometry                 = 0
   epsilon-surface                = 0
   implicit-solvent               = No
   gb-algorithm                   = Still
   nstgbradii                     = 1
   rgbradii                       = 1
   gb-epsilon-solvent             = 80
   gb-saltconc                    = 0
   gb-obc-alpha                   = 1
   gb-obc-beta                    = 0.8
   gb-obc-gamma                   = 4.85
   gb-dielectric-offset           = 0.009
   sa-algorithm                   = Ace-approximation
   sa-surface-tension             = 2.05016
   tcoupl                         = V-rescale
   nsttcouple                     = 40
   nh-chain-length                = 0
   print-nose-hoover-chain-variables = false
   pcoupl                         = Berendsen
   pcoupltype                     = Isotropic
   nstpcouple                     = 40
   tau-p                          = 1
   compressibility (3x3):
      compressibility[    0]={ 4.50000e-05,  0.00000e+00,  0.00000e+00}
      compressibility[    1]={ 0.00000e+00,  4.50000e-05,  0.00000e+00}
      compressibility[    2]={ 0.00000e+00,  0.00000e+00,  4.50000e-05}
   ref-p (3x3):
      ref-p[    0]={ 1.01325e+00,  0.00000e+00,  0.00000e+00}
      ref-p[    1]={ 0.00000e+00,  1.01325e+00,  0.00000e+00}
      ref-p[    2]={ 0.00000e+00,  0.00000e+00,  1.01325e+00}
   refcoord-scaling               = COM
   posres-com (3):
      posres-com[0]= 5.03666e-01
      posres-com[1]= 5.01114e-01
      posres-com[2]= 4.97489e-01
   posres-comB (3):
      posres-comB[0]= 5.03666e-01
      posres-comB[1]= 5.01114e-01
      posres-comB[2]= 4.97489e-01
   QMMM                           = false
   QMconstraints                  = 0
   QMMMscheme                     = 0
   MMChargeScaleFactor            = 1
qm-opts:
   ngQM                           = 0
   constraint-algorithm           = Lincs
   continuation                   = true
   Shake-SOR                      = false
   shake-tol                      = 0.0001
   lincs-order                    = 4
   lincs-iter                     = 1
   lincs-warnangle                = 30
   nwall                          = 0
   wall-type                      = 9-3
   wall-r-linpot                  = -1
   wall-atomtype[0]               = -1
   wall-atomtype[1]               = -1
   wall-density[0]                = 0
   wall-density[1]                = 0
   wall-ewald-zfac                = 3
   pull                           = false
   rotation                       = false
   interactiveMD                  = false
   disre                          = No
   disre-weighting                = Conservative
   disre-mixed                    = false
   dr-fc                          = 1000
   dr-tau                         = 0
   nstdisreout                    = 100
   orire-fc                       = 0
   orire-tau                      = 0
   nstorireout                    = 100
   free-energy                    = no
   cos-acceleration               = 0
   deform (3x3):
      deform[    0]={ 0.00000e+00,  0.00000e+00,  0.00000e+00}
      deform[    1]={ 0.00000e+00,  0.00000e+00,  0.00000e+00}
      deform[    2]={ 0.00000e+00,  0.00000e+00,  0.00000e+00}
   simulated-tempering            = false
   E-x:
      n = 0
   E-xt:
      n = 0
   E-y:
      n = 0
   E-yt:
      n = 0
   E-z:
      n = 0
   E-zt:
      n = 0
   swapcoords                     = no
   userint1                       = 0
   userint2                       = 0
   userint3                       = 0
   userint4                       = 0
   userreal1                      = 0
   userreal2                      = 0
   userreal3                      = 0
   userreal4                      = 0
grpopts:
   nrdf:     3063.77     37473.2
   ref-t:         300         300
   tau-t:         0.1         0.1
annealing:          No          No
annealing-npoints:           0           0
   acc:	           0           0           0
   nfreeze:           N           N           N
   energygrp-flags[  0]: 0

Initializing Domain Decomposition on 4 ranks
Dynamic load balancing: auto
Initial maximum inter charge-group distances:
    two-body bonded interactions: 0.411 nm, LJ-14, atoms 5 13
  multi-body bonded interactions: 0.474 nm, CMAP Dih., atoms 269 287
Minimum cell size due to bonded interactions: 0.521 nm
Maximum distance for 5 constraints, at 120 deg. angles, all-trans: 0.222 nm
Estimated maximum distance required for P-LINCS: 0.222 nm
Using 0 separate PME ranks, per user request
Scaling the initial minimum size with 1/0.8 (option -dds) = 1.25
Optimizing the DD grid for 4 cells with a minimum initial size of 0.652 nm
The maximum allowed number of cells is: X 8 Y 8 Z 7
Domain decomposition grid 4 x 1 x 1, separate PME ranks 0
PME domain decomposition: 4 x 1 x 1
Domain decomposition rank 0, coordinates 0 0 0

The initial number of communication pulses is: X 1
The initial domain decomposition cell size is: X 1.35 nm

The maximum allowed distance for charge groups involved in interactions is:
                 non-bonded interactions           1.280 nm
(the following are initial values, they could change due to box deformation)
            two-body bonded interactions  (-rdd)   1.280 nm
          multi-body bonded interactions  (-rdd)   1.280 nm
  atoms separated by up to 5 constraints  (-rcon)  1.352 nm

When dynamic load balancing gets turned on, these settings will change to:
The maximum number of communication pulses is: X 2
The minimum size for domain decomposition cells is 0.913 nm
The requested allowed shrink of DD cells (option -dds) is: 0.80
The allowed shrink of domain decomposition cells is: X 0.68
The maximum allowed distance for charge groups involved in interactions is:
                 non-bonded interactions           1.280 nm
            two-body bonded interactions  (-rdd)   1.280 nm
          multi-body bonded interactions  (-rdd)   0.913 nm
  atoms separated by up to 5 constraints  (-rcon)  0.913 nm

Using 4 MPI threads
Using 5 OpenMP threads per tMPI thread

2 compatible GPUs are present, with IDs 0,1
2 GPUs auto-selected for this run.
Mapping of GPU IDs to the 4 PP ranks in this node: 0,0,1,1

Will do PME sum in reciprocal space for electrostatic interactions.

Will do ordinary reciprocal space Ewald sum.
Using a Gaussian width (1/beta) of 0.384195 nm for Ewald
Cut-off's:   NS: 1.28   Coulomb: 1.2   LJ: 1.2
System total charge: 0.000
Generated table with 1140 data points for 1-4 COUL.
Tabscale = 500 points/nm
Generated table with 1140 data points for 1-4 LJ6.
Tabscale = 500 points/nm
Generated table with 1140 data points for 1-4 LJ12.
Tabscale = 500 points/nm
Potential shift: LJ r^-12: -2.648e-01 r^-6: -5.349e-01, Ewald -1.000e-05
Initialized non-bonded Ewald correction tables, spacing: 1.02e-03 size: 1176

Application clocks (GPU clocks) for Tesla K20m are (2600,758)

Using GPU 8x8 non-bonded kernels

Pinning threads with an auto-selected logical core stride of 1

Initializing Parallel LINear Constraint Solver

The number of constraints is 629
There are inter charge-group constraints,
will communicate selected coordinates each lincs iteration

Linking all bonded interactions to atoms

Intra-simulation communication will occur every 20 steps.
Center of mass motion removal mode is Linear
We have the following groups for center of mass motion removal:
  0:  rest

There are: 19950 Atoms
Atom distribution over 4 domains: av 4987 stddev 96 min 4922 max 5071

NOTE: DLB will not turn on during the first phase of PME tuning

Initial temperature: 298.08 K

Started mdrun on rank 0 Sun Nov  6 03:49:43 2016
           Step           Time
              0        0.00000

   Energies (kJ/mol)
           Bond            U-B    Proper Dih.  Improper Dih.      CMAP Dih.
    8.97610e+02    2.84562e+03    1.58609e+03    1.69682e+02   -4.36712e+02
          LJ-14     Coulomb-14        LJ (SR)   Coulomb (SR)   Coul. recip.
    6.82454e+02    1.22503e+04    3.58654e+04   -3.26705e+05    9.81208e+02
    7.87440e-04   -2.71863e+05    5.02441e+04   -2.21619e+05    2.98146e+02
   -3.52217e+02    3.11817e-06

	<====  A V E R A G E S  ====>

	Statistics over 500001 steps using 5001 frames

   Energies (kJ/mol)
           Bond            U-B    Proper Dih.  Improper Dih.      CMAP Dih.
    9.15739e+02    2.77855e+03    1.59042e+03    1.61095e+02   -4.12970e+02
          LJ-14     Coulomb-14        LJ (SR)   Coulomb (SR)   Coul. recip.
    6.75214e+02    1.22721e+04    3.74400e+04   -3.30209e+05    9.80187e+02
 Position Rest.      Potential    Kinetic En.   Total Energy    Temperature
    3.13040e+02   -2.73496e+05    5.05513e+04   -2.22944e+05    2.99969e+02
 Pressure (bar)   Constr. rmsd
    2.14849e+00    0.00000e+00

          Box-X          Box-Y          Box-Z
    6.57961e+00    6.57961e+00    4.65249e+00

   Total Virial (kJ/mol)
    1.68151e+04   -1.97010e+02    2.67218e+01
   -1.96847e+02    1.68806e+04   -7.06076e+01
    2.68540e+01   -7.06179e+01    1.68172e+04

   Pressure (bar)
    3.68802e+00    3.49321e+01   -8.12575e+00
    3.49052e+01   -3.00024e+00    1.09038e+01
   -8.14747e+00    1.09056e+01    5.75770e+00

      T-Protein  T-non-Protein
    3.00049e+02    2.99962e+02
